Version8/Distrib/Examples/StoCtrl_Current_PeakShave/Line.DSS
New "Line.333" bus1=ckt7 bus2=318412 length=0.0001 units=none r1=0 r0=0 x1=0.0001 x0=0.0001 normamps=600 emergamps=600
New "Line.215299" bus1=318412.1.2.3 bus2=253843.1.2.3 length=98.80038 linecode=144 normamps=634 emergamps=701 units=m enabled=true phases=3
New "Line.254077" bus1=253842.1.2.3 bus2=253843.1.2.3 length=0.001 linecode=99 normamps=500 emergamps=550 Switch=True units=m enabled=true phases=3
New "Line.246180" bus1=253842.1.2.3 bus2=243936.1.2.3 length=89.03033 linecode=144 normamps=634 emergamps=701 units=m enabled=true phases=3
New "Line.246178" bus1=243936.1.2.3 bus2=243937.1.2.3 length=0.001 linecode=99 normamps=500 emergamps=550 Switch=True units=m enabled=true phases=3
New "Line.239739" bus1=243937.1.2.3 bus2=202181.1.2.3 length=89.62034 linecode=45 normamps=637 emergamps=700 units=m enabled=true phases=3
New "Line.202135" bus1=202181.1.2.3 bus2=165442.1.2.3 length=5.790021 linecode=45 normamps=637 emergamps=700 units=m enabled=true phases=3
New "Line.s_1000663-da1" bus1=x_1000663.1 bus2=s1x_1000663.1 linecode=defaultSecondary normamps=400 emergamps=600 length=100 units=ft
New "Line.s_1000663-db1" bus1=x_1000663.2 bus2=s1x_1000663.2 linecode=defaultSecondary normamps=400 emergamps=600 length=100 units=ft
New "Line.s_1000663-dc1" bus1=x_1000663.3 bus2=s1x_1000663.3 linecode=defaultSecondary normamps=400 emergamps=600 length=100 units=ft
New "Line.157109" bus1=165442.1.2.3 bus2=298160.1.2.3 length=227.5909 linecode=45 normamps=637 emergamps=700 units=m enabled=true phases=3
New "Line.298361" bus1=298159.1.2.3 bus2=298160.1.2.3 length=0.001 linecode=99 normamps=500 emergamps=550 Switch=True units=m enabled=true phases=3
New "Line.298366" bus1=298159.1.2.3 bus2=298162.1.2.3 length=158.9606 linecode=147 normamps=606 emergamps=667 units=m enabled=true phases=3
New "Line.298362" bus1=298161.1.2.3 bus2=298162.1.2.3 length=0.001 linecode=99 normamps=500 emergamps=550 Switch=True units=m enabled=true phases=3
New "Line.298367" bus1=298161.1.2.3 bus2=165448.1.2.3 length=33.08012 linecode=45 normamps=637 emergamps=700 units=m enabled=true phases=3
New "Line.s_1000252-db1" bus1=x_1000252.2 bus2=s1x_1000252.2 linecode=defaultSecondary normamps=400 emergamps=600 length=100 units=ft
New "Line.157115" bus1=165448.1.2.3 bus2=275354.1.2.3 length=325.4212 linecode=45 normamps=637 emergamps=700 units=m enabled=true phases=3
New "Line.s_1003133-db1" bus1=x_1003133.2 bus2=s1x_1003133.2 linecode=defaultSecondary normamps=400 emergamps=600 length=100 units=ft
New "Line.274465" bus1=275354.1.2.3 bus2=165449.1.2.3 length=25.0801 linecode=45 normamps=637 emergamps=700 units=m enabled=true phases=3
New "Line.157116" bus1=165449.1.2.3 bus2=165450.1.2.3 length=51.07019 linecode=40 normamps=160 emergamps=190 units=m enabled=true phases=3
New "Line.157119" bus1=165449.1.2.3 bus2=165451.1.2.3 length=86.07032 linecode=45 normamps=637 emergamps=700 units=m enabled=true phases=3
New "Line.157132" bus1=165451.1.2.3 bus2=165467.1.2.3 length=51.53019 linecode=40 normamps=160 emergamps=190 units=m enabled=true phases=3
New "Line.s_1000672-da1" bus1=x_1000672.1 bus2=s1x_1000672.1 linecode=defaultSecondary normamps=400 emergamps=600 length=100 units=ft
New "Line.157133" bus1=165467.1.2.3 bus2=165468.1.2.3 length=28.48011 linecode=45 normamps=637 emergamps=700 units=m enabled=true phases=3
New "Line.157142" bus1=165468.1.2.3 bus2=165469.1.2.3 length=28.2101 linecode=45 normamps=637 emergamps=700 units=m enabled=true phases=3
New "Line.157143" bus1=165469.1.2.3 bus2=165480.1.2.3 length=42.86016 linecode=45 normamps=637 emergamps=700 units=m enabled=true phases=3
New "Line.157145" bus1=165480.1.2.3 bus2=165478.1.2.3 length=29.72011 linecode=45 normamps=637 emergamps=700 units=m enabled=true phases=3
New "Line.157144" bus1=165478.1.2.3 bus2=165479.1.2.3 length=31.57012 linecode=45 normamps=637 emergamps=700 units=m enabled=true phases=3
New "Line.157150" bus1=165479.1.2.3 bus2=165486.1.2.3 length=45.86017 linecode=40 normamps=160 emergamps=190 units=m enabled=true phases=3
New "Line.s_1001822-da1" bus1=x_1001822.1 bus2=s1x_1001822.1 linecode=defaultSecondary normamps=400 emergamps=600 length=100 units=ft
New "Line.s_1001822-db1" bus1=x_1001822.2 bus2=s1x_1001822.2 linecode=defaultSecondary normamps=400 emergamps=600 length=100 units=ft
New "Line.s_1001822-dc1" bus1=x_1001822.3 bus2=s1x_1001822.3 linecode=defaultSecondary normamps=400 emergamps=600 length=100 units=ft
New "Line.157151" bus1=165486.1.2.3 bus2=165485.1.2.3 length=18.35007 linecode=40 normamps=160 emergamps=190 units=m enabled=true phases=3
New "Line.s_1001823-da1" bus1=x_1001823.1 bus2=s1x_1001823.1 linecode=defaultSecondary normamps=400 emergamps=600 length=100 units=ft
New "Line.157152" bus1=165479.1.2.3 bus2=165487.1.2.3 length=46.28017 linecode=45 normamps=637 emergamps=700 units=m enabled=true phases=3
New "Line.157160" bus1=165487.1.2.3 bus2=283952.1.2.3 length=51.7402 linecode=45 normamps=637 emergamps=700 units=m enabled=true phases=3
New "Line.282435" bus1=283952.1.2.3 bus2=165495.1.2.3 length=104.7904 linecode=45 normamps=637 emergamps=700 units=m enabled=true phases=3
New "Line.157165" bus1=165495.1.2.3 bus2=165500.1.2.3 length=12.82005 linecode=40 normamps=160 emergamps=190 units=m enabled=true phases=3
New "Line.157163" bus1=165500.1.2.3 bus2=165501.1.2.3 length=7.470027 linecode=99 normamps=500 emergamps=550 units=m enabled=true phases=3
New "Line.157167" bus1=165501.1.2.3 bus2=165503.1.2.3 length=54.6002 linecode=186 normamps=214 emergamps=235 units=m enabled=true phases=3
New "Line.s_1001567-da1" bus1=x_1001567.1.2.3 bus2=s1x_1001567.1.2.3 linecode=defaultSecondary3P normamps=299 emergamps=373.75 length=100 units=ft
New "Line.s_1001567-da2" bus1=x_1001567.1.2.3 bus2=s2x_1001567.1.2.3 linecode=defaultSecondary3P normamps=299 emergamps=373.75 length=100 units=ft
New "Line.s_1001567-da3" bus1=x_1001567.1.2.3 bus2=s3x_1001567.1.2.3 linecode=defaultSecondary3P normamps=299 emergamps=373.75 length=100 units=ft
New "Line.157168" bus1=165495.1.2.3 bus2=165504.1.2.3 length=292.5211 linecode=40 normamps=160 emergamps=190 units=m enabled=true phases=3
New "Line.175049" bus1=181968.1.2.3 bus2=165504.1.2.3 length=147.7505 linecode=45 normamps=637 emergamps=700 units=m enabled=true phases=3
New "Line.175037" bus1=181942.1.2.3 bus2=181968.1.2.3 length=42.58016 linecode=45 normamps=637 emergamps=700 units=m enabled=true phases=3
New "Line.175008" bus1=181945.1.2.3 bus2=181942.1.2.3 length=40.63015 linecode=45 normamps=637 emergamps=700 units=m enabled=true phases=3
New "Line.175007" bus1=181932.1.2.3 bus2=181945.1.2.3 length=39.28015 linecode=45 normamps=637 emergamps=700 units=m enabled=true phases=3
New "Line.174999" bus1=181936.1.2.3 bus2=181932.1.2.3 length=34.30013 linecode=45 normamps=637 emergamps=700 units=m enabled=true phases=3
New "Line.s_1000198-da1" bus1=x_1000198.1 bus2=s1x_1000198.1 linecode=defaultSecondary normamps=400 emergamps=600 length=100 units=ft
New "Line.174998" bus1=181929.1.2.3 bus2=181936.1.2.3 length=45.21017 linecode=45 normamps=637 emergamps=700 units=m enabled=true phases=3
New "Line.174995" bus1=255317.1.2.3 bus2=181929.1.2.3 length=82.40031 linecode=45 normamps=637 emergamps=700 units=m enabled=true phases=3
New "Line.255376" bus1=255317.1.2.3 bus2=255318.1.2.3 length=0.001 linecode=99 normamps=500 emergamps=550 Switch=True units=m enabled=true phases=3
New "Line.255377" bus1=181919.1.2.3 bus2=255318.1.2.3 length=41.80016 linecode=104 normamps=500 emergamps=550 units=m enabled=true phases=3
New "Line.174983" bus1=181918.1.2.3 bus2=181919.1.2.3 length=33.13012 linecode=45 normamps=637 emergamps=700 units=m enabled=true phases=3
New "Line.174982" bus1=181917.1.2.3 bus2=181918.1.2.3 length=15.92006 linecode=45 normamps=637 emergamps=700 units=m enabled=true phases=3
New "Line.174980" bus1=181883.1.2.3 bus2=181917.1.2.3 length=413.6915 linecode=45 normamps=637 emergamps=700 units=m enabled=true phases=3
New "Line.174945" bus1=181883.1.2.3 bus2=158676.1.2.3 length=574.9122 linecode=45 normamps=637 emergamps=700 units=m enabled=true phases=3
New "Line.262345" bus1=255322.1.2.3 bus2=181883.1.2.3 length=42.23016 linecode=40 normamps=160 emergamps=190 units=m enabled=true phases=3
New "Line.255381" bus1=255322.1.2.3 bus2=181884.1.2.3 length=20.13007 linecode=40 normamps=160 emergamps=190 units=m enabled=true phases=3
New "Line.174950" bus1=181884.1.2.3 bus2=181886.1.2.3 length=14.66006 linecode=40 normamps=160 emergamps=190 units=m enabled=true phases=3
New "Line.174951" bus1=181886.1.2.3 bus2=181889.1.2.3 length=6.460024 linecode=40 normamps=160 emergamps=190 units=m enabled=true phases=3
New "Line.174947" bus1=181889.1.2.3 bus2=181890.1.2.3 length=8.000031 linecode=99 normamps=500 emergamps=550 units=m enabled=true phases=3
New "Line.174956" bus1=181890.1.2.3 bus2=181893.1.2.3 length=6.460024 linecode=186 normamps=214 emergamps=235 units=m enabled=true phases=3
New "Line.s_1000569-da1" bus1=x_1000569.1.2.3 bus2=s1x_1000569.1.2.3 linecode=defaultSecondary3P normamps=299 emergamps=373.75 length=100 units=ft
New "Line.s_1000569-da2" bus1=x_1000569.1.2.3 bus2=s2x_1000569.1.2.3 linecode=defaultSecondary3P normamps=299 emergamps=373.75 length=100 units=ft
New "Line.s_1000569-da3" bus1=x_1000569.1.2.3 bus2=s3x_1000569.1.2.3 linecode=defaultSecondary3P normamps=299 emergamps=373.75 length=100 units=ft
New "Line.174952" bus1=181886.1.2.3 bus2=181888.1.2.3 length=45.45017 linecode=40 normamps=160 emergamps=190 units=m enabled=true phases=3
New "Line.174953" bus1=181888.1.2.3 bus2=181885.1.2.3 length=46.11017 linecode=109 normamps=225 emergamps=265 units=m enabled=true phases=3
New "Line.s_1000233-db1" bus1=x_1000233.2 bus2=s1x_1000233.2 linecode=defaultSecondary normamps=400 emergamps=600 length=100 units=ft
New "Line.174954" bus1=181885.1.2.3 bus2=181887.1.2.3 length=5.790021 linecode=109 normamps=225 emergamps=265 units=m enabled=true phases=3
New "Line.174955" bus1=181887.1.2.3 bus2=181891.1.2.3 length=16.82006 linecode=109 normamps=225 emergamps=265 units=m enabled=true phases=3
New "Line.174948" bus1=181891.1.2.3 bus2=181892.1.2.3 length=7.530029 linecode=99 normamps=500 emergamps=550 units=m enabled=true phases=3
New "Line.174961" bus1=181892.1 bus2=181898.1 length=76.16029 linecode=181 normamps=213 emergamps=234 units=m enabled=true phases=1
New "Line.s_1000608-da1" bus1=x_1000608.1 bus2=s1x_1000608.1 linecode=defaultSecondary normamps=400 emergamps=600 length=100 units=ft
New "Line.s_1000608-da2" bus1=x_1000608.1 bus2=s2x_1000608.1 linecode=defaultSecondary normamps=400 emergamps=600 length=100 units=ft
New "Line.s_1000608-da3" bus1=x_1000608.1 bus2=s3x_1000608.1 linecode=defaultSecondary normamps=400 emergamps=600 length=100 units=ft
New "Line.s_1000608-da4" bus1=x_1000608.1 bus2=s4x_1000608.1 linecode=defaultSecondary normamps=400 emergamps=600 length=100 units=ft
New "Line.s_1000608-da5" bus1=x_1000608.1 bus2=s5x_1000608.1 linecode=defaultSecondary normamps=400 emergamps=600 length=100 units=ft
New "Line.s_1000608-da6" bus1=x_1000608.1 bus2=s6x_1000608.1 linecode=defaultSecondary normamps=400 emergamps=600 length=100 units=ft
New "Line.s_1000608-da7" bus1=x_1000608.1 bus2=s7x_1000608.1 linecode=defaultSecondary normamps=400 emergamps=600 length=100 units=ft
New "Line.s_1000608-da8" bus1=x_1000608.1 bus2=s8x_1000608.1 linecode=defaultSecondary normamps=400 emergamps=600 length=100 units=ft
New "Line.174962" bus1=181898.1 bus2=181899.1 length=68.65026 linecode=181 normamps=213 emergamps=234 units=m enabled=true phases=1
New "Line.s_1000609-da1" bus1=x_1000609.1 bus2=s1x_1000609.1 linecode=defaultSecondary normamps=400 emergamps=600 length=100 units=ft
New "Line.s_1000609-da2" bus1=x_1000609.1 bus2=s2x_1000609.1 linecode=defaultSecondary normamps=400 emergamps=600 length=100 units=ft
New "Line.s_1000609-da3" bus1=x_1000609.1 bus2=s3x_1000609.1 linecode=defaultSecondary normamps=400 emergamps=600 length=100 units=ft
New "Line.s_1000609-da4" bus1=x_1000609.1 bus2=s4x_1000609.1 linecode=defaultSecondary normamps=400 emergamps=600 length=100 units=ft
New "Line.s_1000609-da5" bus1=x_1000609.1 bus2=s5x_1000609.1 linecode=defaultSecondary normamps=400 emergamps=600 length=100 units=ft
New "Line.s_1000609-da6" bus1=x_1000609.1 bus2=s6x_1000609.1 linecode=defaultSecondary normamps=400 emergamps=600 length=100 units=ft
New "Line.s_1000609-da7" bus1=x_1000609.1 bus2=s7x_1000609.1 linecode=defaultSecondary normamps=400 emergamps=600 length=100 units=ft
New "Line.s_1000609-da8" bus1=x_1000609.1 bus2=s8x_1000609.1 linecode=defaultSecondary normamps=400 emergamps=600 length=100 units=ft
New "Line.s_1000609-da9" bus1=x_1000609.1 bus2=s9x_1000609.1 linecode=defaultSecondary normamps=400 emergamps=600 length=100 units=ft
New "Line.s_1000609-da10" bus1=x_1000609.1 bus2=s10x_1000609.1 linecode=defaultSecondary normamps=400 emergamps=600 length=100 units=ft
New "Line.s_1000609-da11" bus1=x_1000609.1 bus2=s11x_1000609.1 linecode=defaultSecondary normamps=400 emergamps=600 length=100 units=ft
New "Line.174963" bus1=181899.1 bus2=181900.1 length=20.43008 linecode=181 normamps=213 emergamps=234 units=m enabled=true phases=1
New "Line.s_1000610-da1" bus1=x_1000610.1 bus2=s1x_1000610.1 linecode=defaultSecondary normamps=400 emergamps=600 length=100 units=ft
New "Line.s_1000610-da2" bus1=x_1000610.1 bus2=s2x_1000610.1 linecode=defaultSecondary normamps=400 emergamps=600 length=100 units=ft
New "Line.s_1000610-da3" bus1=x_1000610.1 bus2=s3x_1000610.1 linecode=defaultSecondary normamps=400 emergamps=600 length=100 units=ft
New "Line.s_1000610-da4" bus1=x_1000610.1 bus2=s4x_1000610.1 linecode=defaultSecondary normamps=400 emergamps=600 length=100 units=ft
New "Line.s_1000610-da5" bus1=x_1000610.1 bus2=s5x_1000610.1 linecode=defaultSecondary normamps=400 emergamps=600 length=100 units=ft
New "Line.s_1000610-da6" bus1=x_1000610.1 bus2=s6x_1000610.1 linecode=defaultSecondary normamps=400 emergamps=600 length=100 units=ft
New "Line.s_1000610-da7" bus1=x_1000610.1 bus2=s7x_1000610.1 linecode=defaultSecondary normamps=400 emergamps=600 length=100 units=ft
New "Line.s_1000610-da8" bus1=x_1000610.1 bus2=s8x_1000610.1 linecode=defaultSecondary normamps=400 emergamps=600 length=100 units=ft
New "Line.s_1000610-da9" bus1=x_1000610.1 bus2=s9x_1000610.1 linecode=defaultSecondary normamps=400 emergamps=600 length=100 units=ft
New "Line.s_1000610-da10" bus1=x_1000610.1 bus2=s10x_1000610.1 linecode=defaultSecondary normamps=400 emergamps=600 length=100 units=ft
New "Line.s_1000610-da11" bus1=x_1000610.1 bus2=s11x_1000610.1 linecode=defaultSecondary normamps=400 emergamps=600 length=100 units=ft
New "Line.174964" bus1=181900.1 bus2=181901.1 length=34.78013 linecode=181 normamps=213 emergamps=234 units=m enabled=true phases=1
New "Line.s_1000611-da1" bus1=x_1000611.1 bus2=s1x_1000611.1 linecode=defaultSecondary normamps=400 emergamps=600 length=100 units=ft
New "Line.s_1000611-da2" bus1=x_1000611.1 bus2=s2x_1000611.1 linecode=defaultSecondary normamps=400 emergamps=600 length=100 units=ft
New "Line.s_1000611-da3" bus1=x_1000611.1 bus2=s3x_1000611.1 linecode=defaultSecondary normamps=400 emergamps=600 length=100 units=ft
New "Line.s_1000611-da4" bus1=x_1000611.1 bus2=s4x_1000611.1 linecode=defaultSecondary normamps=400 emergamps=600 length=100 units=ft
New "Line.s_1000611-da5" bus1=x_1000611.1 bus2=s5x_1000611.1 linecode=defaultSecondary normamps=400 emergamps=600 length=100 units=ft
New "Line.174965" bus1=181901.1 bus2=181902.1 length=53.0702 linecode=181 normamps=213 emergamps=234 units=m enabled=true phases=1
New "Line.s_1000612-da1" bus1=x_1000612.1 bus2=s1x_1000612.1 linecode=defaultSecondary normamps=400 emergamps=600 length=100 units=ft
New "Line.s_1000612-da2" bus1=x_1000612.1 bus2=s2x_1000612.1 linecode=defaultSecondary normamps=400 emergamps=600 length=100 units=ft
New "Line.s_1000612-da3" bus1=x_1000612.1 bus2=s3x_1000612.1 linecode=defaultSecondary normamps=400 emergamps=600 length=100 units=ft
New "Line.s_1000612-da4" bus1=x_1000612.1 bus2=s4x_1000612.1 linecode=defaultSecondary normamps=400 emergamps=600 length=100 units=ft
New "Line.s_1000612-da5" bus1=x_1000612.1 bus2=s5x_1000612.1 linecode=defaultSecondary normamps=400 emergamps=600 length=100 units=ft
New "Line.s_1000612-da6" bus1=x_1000612.1 bus2=s6x_1000612.1 linecode=defaultSecondary normamps=400 emergamps=600 length=100 units=ft
New "Line.s_1000612-da7" bus1=x_1000612.1 bus2=s7x_1000612.1 linecode=defaultSecondary normamps=400 emergamps=600 length=100 units=ft
New "Line.s_1000612-da8" bus1=x_1000612.1 bus2=s8x_1000612.1 linecode=defaultSecondary normamps=400 emergamps=600 length=100 units=ft
New "Line.174966" bus1=181892.3 bus2=181908.3 length=24.72009 linecode=181 normamps=213 emergamps=234 units=m enabled=true phases=1
New "Line.174967" bus1=181908.3 bus2=181903.3 length=5.800022 linecode=181 normamps=213 emergamps=234 units=m enabled=true phases=1
New "Line.s_1000598-dc1" bus1=x_1000598.3 bus2=s1x_1000598.3 linecode=defaultSecondary normamps=400 emergamps=600 length=100 units=ft
New "Line.s_1000598-dc2" bus1=x_1000598.3 bus2=s2x_1000598.3 linecode=defaultSecondary normamps=400 emergamps=600 length=100 units=ft
New "Line.s_1000598-dc3" bus1=x_1000598.3 bus2=s3x_1000598.3 linecode=defaultSecondary normamps=400 emergamps=600 length=100 units=ft
New "Line.s_1000598-dc4" bus1=x_1000598.3 bus2=s4x_1000598.3 linecode=defaultSecondary normamps=400 emergamps=600 length=100 units=ft
New "Line.s_1000598-dc5" bus1=x_1000598.3 bus2=s5x_1000598.3 linecode=defaultSecondary normamps=400 emergamps=600 length=100 units=ft
New "Line.s_1000598-dc6" bus1=x_1000598.3 bus2=s6x_1000598.3 linecode=defaultSecondary normamps=400 emergamps=600 length=100 units=ft
New "Line.s_1000598-dc7" bus1=x_1000598.3 bus2=s7x_1000598.3 linecode=defaultSecondary normamps=400 emergamps=600 length=100 units=ft
New "Line.s_1000598-dc8" bus1=x_1000598.3 bus2=s8x_1000598.3 linecode=defaultSecondary normamps=400 emergamps=600 length=100 units=ft
New "Line.s_1000598-dc9" bus1=x_1000598.3 bus2=s9x_1000598.3 linecode=defaultSecondary normamps=400 emergamps=600 length=100 units=ft
New "Line.174968" bus1=181908.3 bus2=181904.3 length=21.39008 linecode=181 normamps=213 emergamps=234 units=m enabled=true phases=1
New "Line.s_1000599-dc1" bus1=x_1000599.3 bus2=s1x_1000599.3 linecode=defaultSecondary normamps=400 emergamps=600 length=100 units=ft
New "Line.s_1000599-dc2" bus1=x_1000599.3 bus2=s2x_1000599.3 linecode=defaultSecondary normamps=400 emergamps=600 length=100 units=ft
New "Line.s_1000599-dc3" bus1=x_1000599.3 bus2=s3x_1000599.3 linecode=defaultSecondary normamps=400 emergamps=600 length=100 units=ft
New "Line.s_1000599-dc4" bus1=x_1000599.3 bus2=s4x_1000599.3 linecode=defaultSecondary normamps=400 emergamps=600 length=100 units=ft
New "Line.s_1000599-dc5" bus1=x_1000599.3 bus2=s5x_1000599.3 linecode=defaultSecondary normamps=400 emergamps=600 length=100 units=ft
New "Line.s_1000599-dc6" bus1=x_1000599.3 bus2=s6x_1000599.3 linecode=defaultSecondary normamps=400 emergamps=600 length=100 units=ft
New "Line.s_1000599-dc7" bus1=x_1000599.3 bus2=s7x_1000599.3 linecode=defaultSecondary normamps=400 emergamps=600 length=100 units=ft
New "Line.s_1000599-dc8" bus1=x_1000599.3 bus2=s8x_1000599.3 linecode=defaultSecondary normamps=400 emergamps=600 length=100 units=ft
New "Line.s_1000599-dc9" bus1=x_1000599.3 bus2=s9x_1000599.3 linecode=defaultSecondary normamps=400 emergamps=600 length=100 units=ft
New "Line.s_1000599-dc10" bus1=x_1000599.3 bus2=s10x_1000599.3 linecode=defaultSecondary normamps=400 emergamps=600 length=100 units=ft
New "Line.s_1000599-dc11" bus1=x_1000599.3 bus2=s11x_1000599.3 linecode=defaultSecondary normamps=400 emergamps=600 length=100 units=ft
New "Line.174969" bus1=181908.3 bus2=181905.3 length=50.91019 linecode=181 normamps=213 emergamps=234 units=m enabled=true phases=1
New "Line.s_1000600-dc1" bus1=x_1000600.3 bus2=s1x_1000600.3 linecode=defaultSecondary normamps=400 emergamps=600 length=100 units=ft
New "Line.s_1000600-dc2" bus1=x_1000600.3 bus2=s2x_1000600.3 linecode=defaultSecondary normamps=400 emergamps=600 length=100 units=ft
New "Line.s_1000600-dc3" bus1=x_1000600.3 bus2=s3x_1000600.3 linecode=defaultSecondary normamps=400 emergamps=600 length=100 units=ft
New "Line.s_1000600-dc4" bus1=x_1000600.3 bus2=s4x_1000600.3 linecode=defaultSecondary normamps=400 emergamps=600 length=100 units=ft
New "Line.s_1000600-dc5" bus1=x_1000600.3 bus2=s5x_1000600.3 linecode=defaultSecondary normamps=400 emergamps=600 length=100 units=ft
New "Line.s_1000600-dc6" bus1=x_1000600.3 bus2=s6x_1000600.3 linecode=defaultSecondary normamps=400 emergamps=600 length=100 units=ft
New "Line.s_1000600-dc7" bus1=x_1000600.3 bus2=s7x_1000600.3 linecode=defaultSecondary normamps=400 emergamps=600 length=100 units=ft
New "Line.s_1000600-dc8" bus1=x_1000600.3 bus2=s8x_1000600.3 linecode=defaultSecondary normamps=400 emergamps=600 length=100 units=ft
New "Line.s_1000600-dc9" bus1=x_1000600.3 bus2=s9x_1000600.3 linecode=defaultSecondary normamps=400 emergamps=600 length=100 units=ft
New "Line.174970" bus1=181905.3 bus2=181909.3 length=20.51008 linecode=181 normamps=213 emergamps=234 units=m enabled=true phases=1
New "Line.174971" bus1=181909.3 bus2=181907.3 length=9.150034 linecode=181 normamps=213 emergamps=234 units=m enabled=true phases=1
New "Line.s_1000601-dc1" bus1=x_1000601.3 bus2=s1x_1000601.3 linecode=defaultSecondary normamps=400 emergamps=600 length=100 units=ft
New "Line.s_1000601-dc2" bus1=x_1000601.3 bus2=s2x_1000601.3 linecode=defaultSecondary normamps=400 emergamps=600 length=100 units=ft
New "Line.s_1000601-dc3" bus1=x_1000601.3 bus2=s3x_1000601.3 linecode=defaultSecondary normamps=400 emergamps=600 length=100 units=ft
New "Line.s_1000601-dc4" bus1=x_1000601.3 bus2=s4x_1000601.3 linecode=defaultSecondary normamps=400 emergamps=600 length=100 units=ft
New "Line.s_1000601-dc5" bus1=x_1000601.3 bus2=s5x_1000601.3 linecode=defaultSecondary normamps=400 emergamps=600 length=100 units=ft
New "Line.s_1000601-dc6" bus1=x_1000601.3 bus2=s6x_1000601.3 linecode=defaultSecondary normamps=400 emergamps=600 length=100 units=ft
New "Line.s_1000601-dc7" bus1=x_1000601.3 bus2=s7x_1000601.3 linecode=defaultSecondary normamps=400 emergamps=600 length=100 units=ft
New "Line.s_1000601-dc8" bus1=x_1000601.3 bus2=s8x_1000601.3 linecode=defaultSecondary normamps=400 emergamps=600 length=100 units=ft
New "Line.174972" bus1=181909.3 bus2=181906.3 length=15.99006 linecode=181 normamps=213 emergamps=234 units=m enabled=true phases=1
New "Line.s_1000602-dc1" bus1=x_1000602.3 bus2=s1x_1000602.3 linecode=defaultSecondary normamps=400 emergamps=600 length=100 units=ft
New "Line.s_1000602-dc2" bus1=x_1000602.3 bus2=s2x_1000602.3 linecode=defaultSecondary normamps=400 emergamps=600 length=100 units=ft
New "Line.s_1000602-dc3" bus1=x_1000602.3 bus2=s3x_1000602.3 linecode=defaultSecondary normamps=400 emergamps=600 length=100 units=ft
New "Line.s_1000602-dc4" bus1=x_1000602.3 bus2=s4x_1000602.3 linecode=defaultSecondary normamps=400 emergamps=600 length=100 units=ft
New "Line.s_1000602-dc5" bus1=x_1000602.3 bus2=s5x_1000602.3 linecode=defaultSecondary normamps=400 emergamps=600 length=100 units=ft
New "Line.s_1000602-dc6" bus1=x_1000602.3 bus2=s6x_1000602.3 linecode=defaultSecondary normamps=400 emergamps=600 length=100 units=ft
New "Line.s_1000602-dc7" bus1=x_1000602.3 bus2=s7x_1000602.3 linecode=defaultSecondary normamps=400 emergamps=600 length=100 units=ft
New "Line.s_1000602-dc8" bus1=x_1000602.3 bus2=s8x_1000602.3 linecode=defaultSecondary normamps=400 emergamps=600 length=100 units=ft
New "Line.174973" bus1=181892.2 bus2=181910.2 length=178.4707 linecode=181 normamps=213 emergamps=234 units=m enabled=true phases=1
New "Line.s_1000603-db1" bus1=x_1000603.2 bus2=s1x_1000603.2 linecode=defaultSecondary normamps=400 emergamps=600 length=100 units=ft
New "Line.s_1000603-db2" bus1=x_1000603.2 bus2=s2x_1000603.2 linecode=defaultSecondary normamps=400 emergamps=600 length=100 units=ft
New "Line.s_1000603-db3" bus1=x_1000603.2 bus2=s3x_1000603.2 linecode=defaultSecondary normamps=400 emergamps=600 length=100 units=ft
New "Line.s_1000603-db4" bus1=x_1000603.2 bus2=s4x_1000603.2 linecode=defaultSecondary normamps=400 emergamps=600 length=100 units=ft
New "Line.s_1000603-db5" bus1=x_1000603.2 bus2=s5x_1000603.2 linecode=defaultSecondary normamps=400 emergamps=600 length=100 units=ft
New "Line.s_1000603-db6" bus1=x_1000603.2 bus2=s6x_1000603.2 linecode=defaultSecondary normamps=400 emergamps=600 length=100 units=ft
New "Line.s_1000603-db7" bus1=x_1000603.2 bus2=s7x_1000603.2 linecode=defaultSecondary normamps=400 emergamps=600 length=100 units=ft
New "Line.174974" bus1=181910.2 bus2=181911.2 length=39.85015 linecode=181 normamps=213 emergamps=234 units=m enabled=true phases=1
New "Line.s_1000604-db1" bus1=x_1000604.2 bus2=s1x_1000604.2 linecode=defaultSecondary normamps=400 emergamps=600 length=100 units=ft
New "Line.s_1000604-db2" bus1=x_1000604.2 bus2=s2x_1000604.2 linecode=defaultSecondary normamps=400 emergamps=600 length=100 units=ft
New "Line.s_1000604-db3" bus1=x_1000604.2 bus2=s3x_1000604.2 linecode=defaultSecondary normamps=400 emergamps=600 length=100 units=ft
New "Line.s_1000604-db4" bus1=x_1000604.2 bus2=s4x_1000604.2 linecode=defaultSecondary normamps=400 emergamps=600 length=100 units=ft
New "Line.s_1000604-db5" bus1=x_1000604.2 bus2=s5x_1000604.2 linecode=defaultSecondary normamps=400 emergamps=600 length=100 units=ft
New "Line.s_1000604-db6" bus1=x_1000604.2 bus2=s6x_1000604.2 linecode=defaultSecondary normamps=400 emergamps=600 length=100 units=ft
New "Line.s_1000604-db7" bus1=x_1000604.2 bus2=s7x_1000604.2 linecode=defaultSecondary normamps=400 emergamps=600 length=100 units=ft
New "Line.s_1000604-db8" bus1=x_1000604.2 bus2=s8x_1000604.2 linecode=defaultSecondary normamps=400 emergamps=600 length=100 units=ft
New "Line.s_1000604-db9" bus1=x_1000604.2 bus2=s9x_1000604.2 linecode=defaultSecondary normamps=400 emergamps=600 length=100 units=ft
New "Line.s_1000604-db10" bus1=x_1000604.2 bus2=s10x_1000604.2 linecode=defaultSecondary normamps=400 emergamps=600 length=100 units=ft
New "Line.s_1000604-db11" bus1=x_1000604.2 bus2=s11x_1000604.2 linecode=defaultSecondary normamps=400 emergamps=600 length=100 units=ft
New "Line.s_1000604-db12" bus1=x_1000604.2 bus2=s12x_1000604.2 linecode=defaultSecondary normamps=400 emergamps=600 length=100 units=ft
New "Line.s_1000604-db13" bus1=x_1000604.2 bus2=s13x_1000604.2 linecode=defaultSecondary normamps=400 emergamps=600 length=100 units=ft
New "Line.s_1000604-db14" bus1=x_1000604.2 bus2=s14x_1000604.2 linecode=defaultSecondary normamps=400 emergamps=600 length=100 units=ft
New "Line.s_1000604-db15" bus1=x_1000604.2 bus2=s15x_1000604.2 linecode=defaultSecondary normamps=400 emergamps=600 length=100 units=ft
New "Line.174975" bus1=181911.2 bus2=181916.2 length=59.36022 linecode=181 normamps=213 emergamps=234 units=m enabled=true phases=1
New "Line.174976" bus1=181916.2 bus2=181915.2 length=48.19018 linecode=181 normamps=213 emergamps=234 units=m enabled=true phases=1
New "Line.s_1000607-db1" bus1=x_1000607.2 bus2=s1x_1000607.2 linecode=defaultSecondary normamps=400 emergamps=600 length=100 units=ft
...
