Version8/Distrib/Examples/StoCtrl_Current_PeakShave/Load.DSS
New "Load.1000663-da1" phases=1 bus1=s1x_1000663.1 kV=0.24 kW=7.9965 pf=0.9 status=variable model=4 CVRwatts=0.8 CVRvars=3 class=1 yearly=25607_A conn=wye xfkVA=25 allocationfactor=0.3554
New "Load.1000663-db1" phases=1 bus1=s1x_1000663.2 kV=0.24 kW=8.361 pf=0.9 status=variable model=4 CVRwatts=0.8 CVRvars=3 class=1 yearly=25607_B conn=wye xfkVA=25 allocationfactor=0.3716
New "Load.1000663-dc1" phases=1 bus1=s1x_1000663.3 kV=0.24 kW=8.59275 pf=0.9 status=variable model=4 CVRwatts=0.8 CVRvars=3 class=1 yearly=25607_C conn=wye xfkVA=25 allocationfactor=0.3819
New "Load.1000252-db1" phases=1 bus1=s1x_1000252.2 kV=0.24 kW=12.37428 pf=0.9 status=variable model=4 CVRwatts=0.8 CVRvars=3 class=1 yearly=25607_B conn=wye xfkVA=37 allocationfactor=0.3716
New "Load.1003133-db1" phases=1 bus1=s1x_1003133.2 kV=0.24 kW=8.361 pf=0.9 status=variable model=4 CVRwatts=0.8 CVRvars=3 class=1 yearly=25607_B conn=wye xfkVA=25 allocationfactor=0.3716
New "Load.1000672-da1" phases=1 bus1=s1x_1000672.1 kV=0.24 kW=7.9965 pf=0.9 status=variable model=4 CVRwatts=0.8 CVRvars=3 class=1 yearly=25607_A conn=wye xfkVA=25 allocationfactor=0.3554
New "Load.1001822-da1" phases=1 bus1=s1x_1001822.1 kV=0.24 kW=1.5993 pf=0.9 status=variable model=4 CVRwatts=0.8 CVRvars=3 class=1 yearly=25607_A conn=wye xfkVA=5 allocationfactor=0.3554
New "Load.1001822-db1" phases=1 bus1=s1x_1001822.2 kV=0.24 kW=1.6722 pf=0.9 status=variable model=4 CVRwatts=0.8 CVRvars=3 class=1 yearly=25607_B conn=wye xfkVA=5 allocationfactor=0.3716
New "Load.1001822-dc1" phases=1 bus1=s1x_1001822.3 kV=0.24 kW=1.71855 pf=0.9 status=variable model=4 CVRwatts=0.8 CVRvars=3 class=1 yearly=25607_C conn=wye xfkVA=5 allocationfactor=0.3819
New "Load.1001823-da1" phases=1 bus1=s1x_1001823.1 kV=0.24 kW=11.83482 pf=0.9 status=variable model=4 CVRwatts=0.8 CVRvars=3 class=1 yearly=25607_A conn=wye xfkVA=37 allocationfactor=0.3554
New "Load.1001567-d1" phases=3 bus1=s1x_1001567 kV=0.208 kW=16.632 pf=0.9 status=variable model=4 CVRwatts=0.8 CVRvars=3 class=1 yearly=25607 conn=wye xfkVA=50 allocationfactor=0.3696
New "Load.1001567-d2" phases=3 bus1=s2x_1001567 kV=0.208 kW=16.632 pf=0.9 status=variable model=4 CVRwatts=0.8 CVRvars=3 class=1 yearly=25607 conn=wye xfkVA=50 allocationfactor=0.3696
New "Load.1001567-d3" phases=3 bus1=s3x_1001567 kV=0.208 kW=16.632 pf=0.9 status=variable model=4 CVRwatts=0.8 CVRvars=3 class=1 yearly=25607 conn=wye xfkVA=50 allocationfactor=0.3696
New "Load.1000198-da1" phases=1 bus1=s1x_1000198.1 kV=0.24 kW=3.1986 pf=0.9 status=variable model=4 CVRwatts=0.8 CVRvars=3 class=1 yearly=25607_A conn=wye xfkVA=10 allocationfactor=0.3554
New "Load.1000569-d1" phases=3 bus1=s1x_1000569 kV=0.208 kW=33.264 pf=0.9 status=variable model=4 CVRwatts=0.8 CVRvars=3 class=1 yearly=25607 conn=wye xfkVA=100 allocationfactor=0.3696
New "Load.1000569-d2" phases=3 bus1=s2x_1000569 kV=0.208 kW=33.264 pf=0.9 status=variable model=4 CVRwatts=0.8 CVRvars=3 class=1 yearly=25607 conn=wye xfkVA=100 allocationfactor=0.3696
New "Load.1000569-d3" phases=3 bus1=s3x_1000569 kV=0.208 kW=33.264 pf=0.9 status=variable model=4 CVRwatts=0.8 CVRvars=3 class=1 yearly=25607 conn=wye xfkVA=100 allocationfactor=0.3696
New "Load.1000233-db1" phases=1 bus1=s1x_1000233.2 kV=0.24 kW=12.37428 pf=0.9 status=variable model=4 CVRwatts=0.8 CVRvars=3 class=1 yearly=25607_B conn=wye xfkVA=37 allocationfactor=0.3716
New "Load.1000608-da1" phases=1 bus1=s1x_1000608.1 kV=0.24 kW=2.9986875 pf=0.9 status=variable model=4 CVRwatts=0.8 CVRvars=3 class=1 yearly=25607_A conn=wye xfkVA=9.375 allocationfactor=0.3554
New "Load.1000608-da2" phases=1 bus1=s2x_1000608.1 kV=0.24 kW=2.9986875 pf=0.9 status=variable model=4 CVRwatts=0.8 CVRvars=3 class=1 yearly=25607_A conn=wye xfkVA=9.375 allocationfactor=0.3554
New "Load.1000608-da3" phases=1 bus1=s3x_1000608.1 kV=0.24 kW=2.9986875 pf=0.9 status=variable model=4 CVRwatts=0.8 CVRvars=3 class=1 yearly=25607_A conn=wye xfkVA=9.375 allocationfactor=0.3554
New "Load.1000608-da4" phases=1 bus1=s4x_1000608.1 kV=0.24 kW=2.9986875 pf=0.9 status=variable model=4 CVRwatts=0.8 CVRvars=3 class=1 yearly=25607_A conn=wye xfkVA=9.375 allocationfactor=0.3554
New "Load.1000608-da5" phases=1 bus1=s5x_1000608.1 kV=0.24 kW=2.9986875 pf=0.9 status=variable model=4 CVRwatts=0.8 CVRvars=3 class=1 yearly=25607_A conn=wye xfkVA=9.375 allocationfactor=0.3554
New "Load.1000608-da6" phases=1 bus1=s6x_1000608.1 kV=0.24 kW=2.9986875 pf=0.9 status=variable model=4 CVRwatts=0.8 CVRvars=3 class=1 yearly=25607_A conn=wye xfkVA=9.375 allocationfactor=0.3554
New "Load.1000608-da7" phases=1 bus1=s7x_1000608.1 kV=0.24 kW=2.9986875 pf=0.9 status=variable model=4 CVRwatts=0.8 CVRvars=3 class=1 yearly=25607_A conn=wye xfkVA=9.375 allocationfactor=0.3554
New "Load.1000608-da8" phases=1 bus1=s8x_1000608.1 kV=0.24 kW=2.9986875 pf=0.9 status=variable model=4 CVRwatts=0.8 CVRvars=3 class=1 yearly=25607_A conn=wye xfkVA=9.375 allocationfactor=0.3554
New "Load.1000609-da1" phases=1 bus1=s1x_1000609.1 kV=0.24 kW=1.4539092363 pf=0.9 status=variable model=4 CVRwatts=0.8 CVRvars=3 class=1 yearly=25607_A conn=wye xfkVA=4.545455 allocationfactor=0.3554
New "Load.1000609-da2" phases=1 bus1=s2x_1000609.1 kV=0.24 kW=1.4539092363 pf=0.9 status=variable model=4 CVRwatts=0.8 CVRvars=3 class=1 yearly=25607_A conn=wye xfkVA=4.545455 allocationfactor=0.3554
New "Load.1000609-da3" phases=1 bus1=s3x_1000609.1 kV=0.24 kW=1.4539092363 pf=0.9 status=variable model=4 CVRwatts=0.8 CVRvars=3 class=1 yearly=25607_A conn=wye xfkVA=4.545455 allocationfactor=0.3554
New "Load.1000609-da4" phases=1 bus1=s4x_1000609.1 kV=0.24 kW=1.4539092363 pf=0.9 status=variable model=4 CVRwatts=0.8 CVRvars=3 class=1 yearly=25607_A conn=wye xfkVA=4.545455 allocationfactor=0.3554
New "Load.1000609-da5" phases=1 bus1=s5x_1000609.1 kV=0.24 kW=1.4539092363 pf=0.9 status=variable model=4 CVRwatts=0.8 CVRvars=3 class=1 yearly=25607_A conn=wye xfkVA=4.545455 allocationfactor=0.3554
New "Load.1000609-da6" phases=1 bus1=s6x_1000609.1 kV=0.24 kW=1.4539092363 pf=0.9 status=variable model=4 CVRwatts=0.8 CVRvars=3 class=1 yearly=25607_A conn=wye xfkVA=4.545455 allocationfactor=0.3554
New "Load.1000609-da7" phases=1 bus1=s7x_1000609.1 kV=0.24 kW=1.4539092363 pf=0.9 status=variable model=4 CVRwatts=0.8 CVRvars=3 class=1 yearly=25607_A conn=wye xfkVA=4.545455 allocationfactor=0.3554
New "Load.1000609-da8" phases=1 bus1=s8x_1000609.1 kV=0.24 kW=1.4539092363 pf=0.9 status=variable model=4 CVRwatts=0.8 CVRvars=3 class=1 yearly=25607_A conn=wye xfkVA=4.545455 allocationfactor=0.3554
New "Load.1000609-da9" phases=1 bus1=s9x_1000609.1 kV=0.24 kW=1.4539092363 pf=0.9 status=variable model=4 CVRwatts=0.8 CVRvars=3 class=1 yearly=25607_A conn=wye xfkVA=4.545455 allocationfactor=0.3554
New "Load.1000609-da10" phases=1 bus1=s10x_1000609.1 kV=0.24 kW=1.4539092363 pf=0.9 status=variable model=4 CVRwatts=0.8 CVRvars=3 class=1 yearly=25607_A conn=wye xfkVA=4.545455 allocationfactor=0.3554
New "Load.1000609-da11" phases=1 bus1=s11x_1000609.1 kV=0.24 kW=1.4539092363 pf=0.9 status=variable model=4 CVRwatts=0.8 CVRvars=3 class=1 yearly=25607_A conn=wye xfkVA=4.545455 allocationfactor=0.3554
New "Load.1000610-da1" phases=1 bus1=s1x_1000610.1 kV=0.24 kW=2.90781815274 pf=0.9 status=variable model=4 CVRwatts=0.8 CVRvars=3 class=1 yearly=25607_A conn=wye xfkVA=9.090909 allocationfactor=0.3554
New "Load.1000610-da2" phases=1 bus1=s2x_1000610.1 kV=0.24 kW=2.90781815274 pf=0.9 status=variable model=4 CVRwatts=0.8 CVRvars=3 class=1 yearly=25607_A conn=wye xfkVA=9.090909 allocationfactor=0.3554
New "Load.1000610-da3" phases=1 bus1=s3x_1000610.1 kV=0.24 kW=2.90781815274 pf=0.9 status=variable model=4 CVRwatts=0.8 CVRvars=3 class=1 yearly=25607_A conn=wye xfkVA=9.090909 allocationfactor=0.3554
New "Load.1000610-da4" phases=1 bus1=s4x_1000610.1 kV=0.24 kW=2.90781815274 pf=0.9 status=variable model=4 CVRwatts=0.8 CVRvars=3 class=1 yearly=25607_A conn=wye xfkVA=9.090909 allocationfactor=0.3554
New "Load.1000610-da5" phases=1 bus1=s5x_1000610.1 kV=0.24 kW=2.90781815274 pf=0.9 status=variable model=4 CVRwatts=0.8 CVRvars=3 class=1 yearly=25607_A conn=wye xfkVA=9.090909 allocationfactor=0.3554
New "Load.1000610-da6" phases=1 bus1=s6x_1000610.1 kV=0.24 kW=2.90781815274 pf=0.9 status=variable model=4 CVRwatts=0.8 CVRvars=3 class=1 yearly=25607_A conn=wye xfkVA=9.090909 allocationfactor=0.3554
New "Load.1000610-da7" phases=1 bus1=s7x_1000610.1 kV=0.24 kW=2.90781815274 pf=0.9 status=variable model=4 CVRwatts=0.8 CVRvars=3 class=1 yearly=25607_A conn=wye xfkVA=9.090909 allocationfactor=0.3554
New "Load.1000610-da8" phases=1 bus1=s8x_1000610.1 kV=0.24 kW=2.90781815274 pf=0.9 status=variable model=4 CVRwatts=0.8 CVRvars=3 class=1 yearly=25607_A conn=wye xfkVA=9.090909 allocationfactor=0.3554
New "Load.1000610-da9" phases=1 bus1=s9x_1000610.1 kV=0.24 kW=2.90781815274 pf=0.9 status=variable model=4 CVRwatts=0.8 CVRvars=3 class=1 yearly=25607_A conn=wye xfkVA=9.090909 allocationfactor=0.3554
New "Load.1000610-da10" phases=1 bus1=s10x_1000610.1 kV=0.24 kW=2.90781815274 pf=0.9 status=variable model=4 CVRwatts=0.8 CVRvars=3 class=1 yearly=25607_A conn=wye xfkVA=9.090909 allocationfactor=0.3554
New "Load.1000610-da11" phases=1 bus1=s11x_1000610.1 kV=0.24 kW=2.90781815274 pf=0.9 status=variable model=4 CVRwatts=0.8 CVRvars=3 class=1 yearly=25607_A conn=wye xfkVA=9.090909 allocationfactor=0.3554
New "Load.1000611-da1" phases=1 bus1=s1x_1000611.1 kV=0.24 kW=3.1986 pf=0.9 status=variable model=4 CVRwatts=0.8 CVRvars=3 class=1 yearly=25607_A conn=wye xfkVA=10 allocationfactor=0.3554
New "Load.1000611-da2" phases=1 bus1=s2x_1000611.1 kV=0.24 kW=3.1986 pf=0.9 status=variable model=4 CVRwatts=0.8 CVRvars=3 class=1 yearly=25607_A conn=wye xfkVA=10 allocationfactor=0.3554
New "Load.1000611-da3" phases=1 bus1=s3x_1000611.1 kV=0.24 kW=3.1986 pf=0.9 status=variable model=4 CVRwatts=0.8 CVRvars=3 class=1 yearly=25607_A conn=wye xfkVA=10 allocationfactor=0.3554
New "Load.1000611-da4" phases=1 bus1=s4x_1000611.1 kV=0.24 kW=3.1986 pf=0.9 status=variable model=4 CVRwatts=0.8 CVRvars=3 class=1 yearly=25607_A conn=wye xfkVA=10 allocationfactor=0.3554
New "Load.1000611-da5" phases=1 bus1=s5x_1000611.1 kV=0.24 kW=3.1986 pf=0.9 status=variable model=4 CVRwatts=0.8 CVRvars=3 class=1 yearly=25607_A conn=wye xfkVA=10 allocationfactor=0.3554
New "Load.1000612-da1" phases=1 bus1=s1x_1000612.1 kV=0.24 kW=3.99825 pf=0.9 status=variable model=4 CVRwatts=0.8 CVRvars=3 class=1 yearly=25607_A conn=wye xfkVA=12.5 allocationfactor=0.3554
New "Load.1000612-da2" phases=1 bus1=s2x_1000612.1 kV=0.24 kW=3.99825 pf=0.9 status=variable model=4 CVRwatts=0.8 CVRvars=3 class=1 yearly=25607_A conn=wye xfkVA=12.5 allocationfactor=0.3554
New "Load.1000612-da3" phases=1 bus1=s3x_1000612.1 kV=0.24 kW=3.99825 pf=0.9 status=variable model=4 CVRwatts=0.8 CVRvars=3 class=1 yearly=25607_A conn=wye xfkVA=12.5 allocationfactor=0.3554
New "Load.1000612-da4" phases=1 bus1=s4x_1000612.1 kV=0.24 kW=3.99825 pf=0.9 status=variable model=4 CVRwatts=0.8 CVRvars=3 class=1 yearly=25607_A conn=wye xfkVA=12.5 allocationfactor=0.3554
New "Load.1000612-da5" phases=1 bus1=s5x_1000612.1 kV=0.24 kW=3.99825 pf=0.9 status=variable model=4 CVRwatts=0.8 CVRvars=3 class=1 yearly=25607_A conn=wye xfkVA=12.5 allocationfactor=0.3554
New "Load.1000612-da6" phases=1 bus1=s6x_1000612.1 kV=0.24 kW=3.99825 pf=0.9 status=variable model=4 CVRwatts=0.8 CVRvars=3 class=1 yearly=25607_A conn=wye xfkVA=12.5 allocationfactor=0.3554
New "Load.1000612-da7" phases=1 bus1=s7x_1000612.1 kV=0.24 kW=3.99825 pf=0.9 status=variable model=4 CVRwatts=0.8 CVRvars=3 class=1 yearly=25607_A conn=wye xfkVA=12.5 allocationfactor=0.3554
New "Load.1000612-da8" phases=1 bus1=s8x_1000612.1 kV=0.24 kW=3.99825 pf=0.9 status=variable model=4 CVRwatts=0.8 CVRvars=3 class=1 yearly=25607_A conn=wye xfkVA=12.5 allocationfactor=0.3554
New "Load.1000598-dc1" phases=1 bus1=s1x_1000598.3 kV=0.24 kW=2.86424988543 pf=0.9 status=variable model=4 CVRwatts=0.8 CVRvars=3 class=1 yearly=25607_C conn=wye xfkVA=8.333333 allocationfactor=0.3819
New "Load.1000598-dc2" phases=1 bus1=s2x_1000598.3 kV=0.24 kW=2.86424988543 pf=0.9 status=variable model=4 CVRwatts=0.8 CVRvars=3 class=1 yearly=25607_C conn=wye xfkVA=8.333333 allocationfactor=0.3819
New "Load.1000598-dc3" phases=1 bus1=s3x_1000598.3 kV=0.24 kW=2.86424988543 pf=0.9 status=variable model=4 CVRwatts=0.8 CVRvars=3 class=1 yearly=25607_C conn=wye xfkVA=8.333333 allocationfactor=0.3819
New "Load.1000598-dc4" phases=1 bus1=s4x_1000598.3 kV=0.24 kW=2.86424988543 pf=0.9 status=variable model=4 CVRwatts=0.8 CVRvars=3 class=1 yearly=25607_C conn=wye xfkVA=8.333333 allocationfactor=0.3819
New "Load.1000598-dc5" phases=1 bus1=s5x_1000598.3 kV=0.24 kW=2.86424988543 pf=0.9 status=variable model=4 CVRwatts=0.8 CVRvars=3 class=1 yearly=25607_C conn=wye xfkVA=8.333333 allocationfactor=0.3819
New "Load.1000598-dc6" phases=1 bus1=s6x_1000598.3 kV=0.24 kW=2.86424988543 pf=0.9 status=variable model=4 CVRwatts=0.8 CVRvars=3 class=1 yearly=25607_C conn=wye xfkVA=8.333333 allocationfactor=0.3819
New "Load.1000598-dc7" phases=1 bus1=s7x_1000598.3 kV=0.24 kW=2.86424988543 pf=0.9 status=variable model=4 CVRwatts=0.8 CVRvars=3 class=1 yearly=25607_C conn=wye xfkVA=8.333333 allocationfactor=0.3819
New "Load.1000598-dc8" phases=1 bus1=s8x_1000598.3 kV=0.24 kW=2.86424988543 pf=0.9 status=variable model=4 CVRwatts=0.8 CVRvars=3 class=1 yearly=25607_C conn=wye xfkVA=8.333333 allocationfactor=0.3819
New "Load.1000598-dc9" phases=1 bus1=s9x_1000598.3 kV=0.24 kW=2.86424988543 pf=0.9 status=variable model=4 CVRwatts=0.8 CVRvars=3 class=1 yearly=25607_C conn=wye xfkVA=8.333333 allocationfactor=0.3819
New "Load.1000599-dc1" phases=1 bus1=s1x_1000599.3 kV=0.24 kW=2.34347733522 pf=0.9 status=variable model=4 CVRwatts=0.8 CVRvars=3 class=1 yearly=25607_C conn=wye xfkVA=6.818182 allocationfactor=0.3819
New "Load.1000599-dc2" phases=1 bus1=s2x_1000599.3 kV=0.24 kW=2.34347733522 pf=0.9 status=variable model=4 CVRwatts=0.8 CVRvars=3 class=1 yearly=25607_C conn=wye xfkVA=6.818182 allocationfactor=0.3819
New "Load.1000599-dc3" phases=1 bus1=s3x_1000599.3 kV=0.24 kW=2.34347733522 pf=0.9 status=variable model=4 CVRwatts=0.8 CVRvars=3 class=1 yearly=25607_C conn=wye xfkVA=6.818182 allocationfactor=0.3819
New "Load.1000599-dc4" phases=1 bus1=s4x_1000599.3 kV=0.24 kW=2.34347733522 pf=0.9 status=variable model=4 CVRwatts=0.8 CVRvars=3 class=1 yearly=25607_C conn=wye xfkVA=6.818182 allocationfactor=0.3819
New "Load.1000599-dc5" phases=1 bus1=s5x_1000599.3 kV=0.24 kW=2.34347733522 pf=0.9 status=variable model=4 CVRwatts=0.8 CVRvars=3 class=1 yearly=25607_C conn=wye xfkVA=6.818182 allocationfactor=0.3819
New "Load.1000599-dc6" phases=1 bus1=s6x_1000599.3 kV=0.24 kW=2.34347733522 pf=0.9 status=variable model=4 CVRwatts=0.8 CVRvars=3 class=1 yearly=25607_C conn=wye xfkVA=6.818182 allocationfactor=0.3819
New "Load.1000599-dc7" phases=1 bus1=s7x_1000599.3 kV=0.24 kW=2.34347733522 pf=0.9 status=variable model=4 CVRwatts=0.8 CVRvars=3 class=1 yearly=25607_C conn=wye xfkVA=6.818182 allocationfactor=0.3819
New "Load.1000599-dc8" phases=1 bus1=s8x_1000599.3 kV=0.24 kW=2.34347733522 pf=0.9 status=variable model=4 CVRwatts=0.8 CVRvars=3 class=1 yearly=25607_C conn=wye xfkVA=6.818182 allocationfactor=0.3819
New "Load.1000599-dc9" phases=1 bus1=s9x_1000599.3 kV=0.24 kW=2.34347733522 pf=0.9 status=variable model=4 CVRwatts=0.8 CVRvars=3 class=1 yearly=25607_C conn=wye xfkVA=6.818182 allocationfactor=0.3819
New "Load.1000599-dc10" phases=1 bus1=s10x_1000599.3 kV=0.24 kW=2.34347733522 pf=0.9 status=variable model=4 CVRwatts=0.8 CVRvars=3 class=1 yearly=25607_C conn=wye xfkVA=6.818182 allocationfactor=0.3819
New "Load.1000599-dc11" phases=1 bus1=s11x_1000599.3 kV=0.24 kW=2.34347733522 pf=0.9 status=variable model=4 CVRwatts=0.8 CVRvars=3 class=1 yearly=25607_C conn=wye xfkVA=6.818182 allocationfactor=0.3819
New "Load.1000600-dc1" phases=1 bus1=s1x_1000600.3 kV=0.24 kW=1.90949980905 pf=0.9 status=variable model=4 CVRwatts=0.8 CVRvars=3 class=1 yearly=25607_C conn=wye xfkVA=5.555555 allocationfactor=0.3819
New "Load.1000600-dc2" phases=1 bus1=s2x_1000600.3 kV=0.24 kW=1.90949980905 pf=0.9 status=variable model=4 CVRwatts=0.8 CVRvars=3 class=1 yearly=25607_C conn=wye xfkVA=5.555555 allocationfactor=0.3819
New "Load.1000600-dc3" phases=1 bus1=s3x_1000600.3 kV=0.24 kW=1.90949980905 pf=0.9 status=variable model=4 CVRwatts=0.8 CVRvars=3 class=1 yearly=25607_C conn=wye xfkVA=5.555555 allocationfactor=0.3819
New "Load.1000600-dc4" phases=1 bus1=s4x_1000600.3 kV=0.24 kW=1.90949980905 pf=0.9 status=variable model=4 CVRwatts=0.8 CVRvars=3 class=1 yearly=25607_C conn=wye xfkVA=5.555555 allocationfactor=0.3819
New "Load.1000600-dc5" phases=1 bus1=s5x_1000600.3 kV=0.24 kW=1.90949980905 pf=0.9 status=variable model=4 CVRwatts=0.8 CVRvars=3 class=1 yearly=25607_C conn=wye xfkVA=5.555555 allocationfactor=0.3819
New "Load.1000600-dc6" phases=1 bus1=s6x_1000600.3 kV=0.24 kW=1.90949980905 pf=0.9 status=variable model=4 CVRwatts=0.8 CVRvars=3 class=1 yearly=25607_C conn=wye xfkVA=5.555555 allocationfactor=0.3819
New "Load.1000600-dc7" phases=1 bus1=s7x_1000600.3 kV=0.24 kW=1.90949980905 pf=0.9 status=variable model=4 CVRwatts=0.8 CVRvars=3 class=1 yearly=25607_C conn=wye xfkVA=5.555555 allocationfactor=0.3819
New "Load.1000600-dc8" phases=1 bus1=s8x_1000600.3 kV=0.24 kW=1.90949980905 pf=0.9 status=variable model=4 CVRwatts=0.8 CVRvars=3 class=1 yearly=25607_C conn=wye xfkVA=5.555555 allocationfactor=0.3819
New "Load.1000600-dc9" phases=1 bus1=s9x_1000600.3 kV=0.24 kW=1.90949980905 pf=0.9 status=variable model=4 CVRwatts=0.8 CVRvars=3 class=1 yearly=25607_C conn=wye xfkVA=5.555555 allocationfactor=0.3819
New "Load.1000601-dc1" phases=1 bus1=s1x_1000601.3 kV=0.24 kW=2.1481875 pf=0.9 status=variable model=4 CVRwatts=0.8 CVRvars=3 class=1 yearly=25607_C conn=wye xfkVA=6.25 allocationfactor=0.3819
New "Load.1000601-dc2" phases=1 bus1=s2x_1000601.3 kV=0.24 kW=2.1481875 pf=0.9 status=variable model=4 CVRwatts=0.8 CVRvars=3 class=1 yearly=25607_C conn=wye xfkVA=6.25 allocationfactor=0.3819
New "Load.1000601-dc3" phases=1 bus1=s3x_1000601.3 kV=0.24 kW=2.1481875 pf=0.9 status=variable model=4 CVRwatts=0.8 CVRvars=3 class=1 yearly=25607_C conn=wye xfkVA=6.25 allocationfactor=0.3819
New "Load.1000601-dc4" phases=1 bus1=s4x_1000601.3 kV=0.24 kW=2.1481875 pf=0.9 status=variable model=4 CVRwatts=0.8 CVRvars=3 class=1 yearly=25607_C conn=wye xfkVA=6.25 allocationfactor=0.3819
New "Load.1000601-dc5" phases=1 bus1=s5x_1000601.3 kV=0.24 kW=2.1481875 pf=0.9 status=variable model=4 CVRwatts=0.8 CVRvars=3 class=1 yearly=25607_C conn=wye xfkVA=6.25 allocationfactor=0.3819
New "Load.1000601-dc6" phases=1 bus1=s6x_1000601.3 kV=0.24 kW=2.1481875 pf=0.9 status=variable model=4 CVRwatts=0.8 CVRvars=3 class=1 yearly=25607_C conn=wye xfkVA=6.25 allocationfactor=0.3819
New "Load.1000601-dc7" phases=1 bus1=s7x_1000601.3 kV=0.24 kW=2.1481875 pf=0.9 status=variable model=4 CVRwatts=0.8 CVRvars=3 class=1 yearly=25607_C conn=wye xfkVA=6.25 allocationfactor=0.3819
New "Load.1000601-dc8" phases=1 bus1=s8x_1000601.3 kV=0.24 kW=2.1481875 pf=0.9 status=variable model=4 CVRwatts=0.8 CVRvars=3 class=1 yearly=25607_C conn=wye xfkVA=6.25 allocationfactor=0.3819
New "Load.1000602-dc1" phases=1 bus1=s1x_1000602.3 kV=0.24 kW=2.1481875 pf=0.9 status=variable model=4 CVRwatts=0.8 CVRvars=3 class=1 yearly=25607_C conn=wye xfkVA=6.25 allocationfactor=0.3819
New "Load.1000602-dc2" phases=1 bus1=s2x_1000602.3 kV=0.24 kW=2.1481875 pf=0.9 status=variable model=4 CVRwatts=0.8 CVRvars=3 class=1 yearly=25607_C conn=wye xfkVA=6.25 allocationfactor=0.3819
New "Load.1000602-dc3" phases=1 bus1=s3x_1000602.3 kV=0.24 kW=2.1481875 pf=0.9 status=variable model=4 CVRwatts=0.8 CVRvars=3 class=1 yearly=25607_C conn=wye xfkVA=6.25 allocationfactor=0.3819
New "Load.1000602-dc4" phases=1 bus1=s4x_1000602.3 kV=0.24 kW=2.1481875 pf=0.9 status=variable model=4 CVRwatts=0.8 CVRvars=3 class=1 yearly=25607_C conn=wye xfkVA=6.25 allocationfactor=0.3819
New "Load.1000602-dc5" phases=1 bus1=s5x_1000602.3 kV=0.24 kW=2.1481875 pf=0.9 status=variable model=4 CVRwatts=0.8 CVRvars=3 class=1 yearly=25607_C conn=wye xfkVA=6.25 allocationfactor=0.3819
New "Load.1000602-dc6" phases=1 bus1=s6x_1000602.3 kV=0.24 kW=2.1481875 pf=0.9 status=variable model=4 CVRwatts=0.8 CVRvars=3 class=1 yearly=25607_C conn=wye xfkVA=6.25 allocationfactor=0.3819
New "Load.1000602-dc7" phases=1 bus1=s7x_1000602.3 kV=0.24 kW=2.1481875 pf=0.9 status=variable model=4 CVRwatts=0.8 CVRvars=3 class=1 yearly=25607_C conn=wye xfkVA=6.25 allocationfactor=0.3819
New "Load.1000602-dc8" phases=1 bus1=s8x_1000602.3 kV=0.24 kW=2.1481875 pf=0.9 status=variable model=4 CVRwatts=0.8 CVRvars=3 class=1 yearly=25607_C conn=wye xfkVA=6.25 allocationfactor=0.3819
New "Load.1000603-db1" phases=1 bus1=s1x_1000603.2 kV=0.24 kW=3.5832871476 pf=0.9 status=variable model=4 CVRwatts=0.8 CVRvars=3 class=1 yearly=25607_B conn=wye xfkVA=10.71429 allocationfactor=0.3716
New "Load.1000603-db2" phases=1 bus1=s2x_1000603.2 kV=0.24 kW=3.5832871476 pf=0.9 status=variable model=4 CVRwatts=0.8 CVRvars=3 class=1 yearly=25607_B conn=wye xfkVA=10.71429 allocationfactor=0.3716
New "Load.1000603-db3" phases=1 bus1=s3x_1000603.2 kV=0.24 kW=3.5832871476 pf=0.9 status=variable model=4 CVRwatts=0.8 CVRvars=3 class=1 yearly=25607_B conn=wye xfkVA=10.71429 allocationfactor=0.3716
New "Load.1000603-db4" phases=1 bus1=s4x_1000603.2 kV=0.24 kW=3.5832871476 pf=0.9 status=variable model=4 CVRwatts=0.8 CVRvars=3 class=1 yearly=25607_B conn=wye xfkVA=10.71429 allocationfactor=0.3716
New "Load.1000603-db5" phases=1 bus1=s5x_1000603.2 kV=0.24 kW=3.5832871476 pf=0.9 status=variable model=4 CVRwatts=0.8 CVRvars=3 class=1 yearly=25607_B conn=wye xfkVA=10.71429 allocationfactor=0.3716
New "Load.1000603-db6" phases=1 bus1=s6x_1000603.2 kV=0.24 kW=3.5832871476 pf=0.9 status=variable model=4 CVRwatts=0.8 CVRvars=3 class=1 yearly=25607_B conn=wye xfkVA=10.71429 allocationfactor=0.3716
New "Load.1000603-db7" phases=1 bus1=s7x_1000603.2 kV=0.24 kW=3.5832871476 pf=0.9 status=variable model=4 CVRwatts=0.8 CVRvars=3 class=1 yearly=25607_B conn=wye xfkVA=10.71429 allocationfactor=0.3716
New "Load.1000604-db1" phases=1 bus1=s1x_1000604.2 kV=0.24 kW=1.6722 pf=0.9 status=variable model=4 CVRwatts=0.8 CVRvars=3 class=1 yearly=25607_B conn=wye xfkVA=5 allocationfactor=0.3716
New "Load.1000604-db2" phases=1 bus1=s2x_1000604.2 kV=0.24 kW=1.6722 pf=0.9 status=variable model=4 CVRwatts=0.8 CVRvars=3 class=1 yearly=25607_B conn=wye xfkVA=5 allocationfactor=0.3716
New "Load.1000604-db3" phases=1 bus1=s3x_1000604.2 kV=0.24 kW=1.6722 pf=0.9 status=variable model=4 CVRwatts=0.8 CVRvars=3 class=1 yearly=25607_B conn=wye xfkVA=5 allocationfactor=0.3716
New "Load.1000604-db4" phases=1 bus1=s4x_1000604.2 kV=0.24 kW=1.6722 pf=0.9 status=variable model=4 CVRwatts=0.8 CVRvars=3 class=1 yearly=25607_B conn=wye xfkVA=5 allocationfactor=0.3716
New "Load.1000604-db5" phases=1 bus1=s5x_1000604.2 kV=0.24 kW=1.6722 pf=0.9 status=variable model=4 CVRwatts=0.8 CVRvars=3 class=1 yearly=25607_B conn=wye xfkVA=5 allocationfactor=0.3716
New "Load.1000604-db6" phases=1 bus1=s6x_1000604.2 kV=0.24 kW=1.6722 pf=0.9 status=variable model=4 CVRwatts=0.8 CVRvars=3 class=1 yearly=25607_B conn=wye xfkVA=5 allocationfactor=0.3716
New "Load.1000604-db7" phases=1 bus1=s7x_1000604.2 kV=0.24 kW=1.6722 pf=0.9 status=variable model=4 CVRwatts=0.8 CVRvars=3 class=1 yearly=25607_B conn=wye xfkVA=5 allocationfactor=0.3716
New "Load.1000604-db8" phases=1 bus1=s8x_1000604.2 kV=0.24 kW=1.6722 pf=0.9 status=variable model=4 CVRwatts=0.8 CVRvars=3 class=1 yearly=25607_B conn=wye xfkVA=5 allocationfactor=0.3716
New "Load.1000604-db9" phases=1 bus1=s9x_1000604.2 kV=0.24 kW=1.6722 pf=0.9 status=variable model=4 CVRwatts=0.8 CVRvars=3 class=1 yearly=25607_B conn=wye xfkVA=5 allocationfactor=0.3716
New "Load.1000604-db10" phases=1 bus1=s10x_1000604.2 kV=0.24 kW=1.6722 pf=0.9 status=variable model=4 CVRwatts=0.8 CVRvars=3 class=1 yearly=25607_B conn=wye xfkVA=5 allocationfactor=0.3716
New "Load.1000604-db11" phases=1 bus1=s11x_1000604.2 kV=0.24 kW=1.6722 pf=0.9 status=variable model=4 CVRwatts=0.8 CVRvars=3 class=1 yearly=25607_B conn=wye xfkVA=5 allocationfactor=0.3716
New "Load.1000604-db12" phases=1 bus1=s12x_1000604.2 kV=0.24 kW=1.6722 pf=0.9 status=variable model=4 CVRwatts=0.8 CVRvars=3 class=1 yearly=25607_B conn=wye xfkVA=5 allocationfactor=0.3716
New "Load.1000604-db13" phases=1 bus1=s13x_1000604.2 kV=0.24 kW=1.6722 pf=0.9 status=variable model=4 CVRwatts=0.8 CVRvars=3 class=1 yearly=25607_B conn=wye xfkVA=5 allocationfactor=0.3716
New "Load.1000604-db14" phases=1 bus1=s14x_1000604.2 kV=0.24 kW=1.6722 pf=0.9 status=variable model=4 CVRwatts=0.8 CVRvars=3 class=1 yearly=25607_B conn=wye xfkVA=5 allocationfactor=0.3716
New "Load.1000604-db15" phases=1 bus1=s15x_1000604.2 kV=0.24 kW=1.6722 pf=0.9 status=variable model=4 CVRwatts=0.8 CVRvars=3 class=1 yearly=25607_B conn=wye xfkVA=5 allocationfactor=0.3716
New "Load.1000607-db1" phases=1 bus1=s1x_1000607.2 kV=0.24 kW=2.09025 pf=0.9 status=variable model=4 CVRwatts=0.8 CVRvars=3 class=1 yearly=25607_B conn=wye xfkVA=6.25 allocationfactor=0.3716
New "Load.1000607-db2" phases=1 bus1=s2x_1000607.2 kV=0.24 kW=2.09025 pf=0.9 status=variable model=4 CVRwatts=0.8 CVRvars=3 class=1 yearly=25607_B conn=wye xfkVA=6.25 allocationfactor=0.3716
New "Load.1000607-db3" phases=1 bus1=s3x_1000607.2 kV=0.24 kW=2.09025 pf=0.9 status=variable model=4 CVRwatts=0.8 CVRvars=3 class=1 yearly=25607_B conn=wye xfkVA=6.25 allocationfactor=0.3716
New "Load.1000607-db4" phases=1 bus1=s4x_1000607.2 kV=0.24 kW=2.09025 pf=0.9 status=variable model=4 CVRwatts=0.8 CVRvars=3 class=1 yearly=25607_B conn=wye xfkVA=6.25 allocationfactor=0.3716
New "Load.1000607-db5" phases=1 bus1=s5x_1000607.2 kV=0.24 kW=2.09025 pf=0.9 status=variable model=4 CVRwatts=0.8 CVRvars=3 class=1 yearly=25607_B conn=wye xfkVA=6.25 allocationfactor=0.3716
New "Load.1000607-db6" phases=1 bus1=s6x_1000607.2 kV=0.24 kW=2.09025 pf=0.9 status=variable model=4 CVRwatts=0.8 CVRvars=3 class=1 yearly=25607_B conn=wye xfkVA=6.25 allocationfactor=0.3716
New "Load.1000607-db7" phases=1 bus1=s7x_1000607.2 kV=0.24 kW=2.09025 pf=0.9 status=variable model=4 CVRwatts=0.8 CVRvars=3 class=1 yearly=25607_B conn=wye xfkVA=6.25 allocationfactor=0.3716
New "Load.1000607-db8" phases=1 bus1=s8x_1000607.2 kV=0.24 kW=2.09025 pf=0.9 status=variable model=4 CVRwatts=0.8 CVRvars=3 class=1 yearly=25607_B conn=wye xfkVA=6.25 allocationfactor=0.3716
New "Load.1000605-db1" phases=1 bus1=s1x_1000605.2 kV=0.24 kW=3.04036360596 pf=0.9 status=variable model=4 CVRwatts=0.8 CVRvars=3 class=1 yearly=25607_B conn=wye xfkVA=9.090909 allocationfactor=0.3716
New "Load.1000605-db2" phases=1 bus1=s2x_1000605.2 kV=0.24 kW=3.04036360596 pf=0.9 status=variable model=4 CVRwatts=0.8 CVRvars=3 class=1 yearly=25607_B conn=wye xfkVA=9.090909 allocationfactor=0.3716
New "Load.1000605-db3" phases=1 bus1=s3x_1000605.2 kV=0.24 kW=3.04036360596 pf=0.9 status=variable model=4 CVRwatts=0.8 CVRvars=3 class=1 yearly=25607_B conn=wye xfkVA=9.090909 allocationfactor=0.3716
New "Load.1000605-db4" phases=1 bus1=s4x_1000605.2 kV=0.24 kW=3.04036360596 pf=0.9 status=variable model=4 CVRwatts=0.8 CVRvars=3 class=1 yearly=25607_B conn=wye xfkVA=9.090909 allocationfactor=0.3716
New "Load.1000605-db5" phases=1 bus1=s5x_1000605.2 kV=0.24 kW=3.04036360596 pf=0.9 status=variable model=4 CVRwatts=0.8 CVRvars=3 class=1 yearly=25607_B conn=wye xfkVA=9.090909 allocationfactor=0.3716
New "Load.1000605-db6" phases=1 bus1=s6x_1000605.2 kV=0.24 kW=3.04036360596 pf=0.9 status=variable model=4 CVRwatts=0.8 CVRvars=3 class=1 yearly=25607_B conn=wye xfkVA=9.090909 allocationfactor=0.3716
New "Load.1000605-db7" phases=1 bus1=s7x_1000605.2 kV=0.24 kW=3.04036360596 pf=0.9 status=variable model=4 CVRwatts=0.8 CVRvars=3 class=1 yearly=25607_B conn=wye xfkVA=9.090909 allocationfactor=0.3716
New "Load.1000605-db8" phases=1 bus1=s8x_1000605.2 kV=0.24 kW=3.04036360596 pf=0.9 status=variable model=4 CVRwatts=0.8 CVRvars=3 class=1 yearly=25607_B conn=wye xfkVA=9.090909 allocationfactor=0.3716
New "Load.1000605-db9" phases=1 bus1=s9x_1000605.2 kV=0.24 kW=3.04036360596 pf=0.9 status=variable model=4 CVRwatts=0.8 CVRvars=3 class=1 yearly=25607_B conn=wye xfkVA=9.090909 allocationfactor=0.3716
New "Load.1000605-db10" phases=1 bus1=s10x_1000605.2 kV=0.24 kW=3.04036360596 pf=0.9 status=variable model=4 CVRwatts=0.8 CVRvars=3 class=1 yearly=25607_B conn=wye xfkVA=9.090909 allocationfactor=0.3716
New "Load.1000605-db11" phases=1 bus1=s11x_1000605.2 kV=0.24 kW=3.04036360596 pf=0.9 status=variable model=4 CVRwatts=0.8 CVRvars=3 class=1 yearly=25607_B conn=wye xfkVA=9.090909 allocationfactor=0.3716
New "Load.1000606-db1" phases=1 bus1=s1x_1000606.2 kV=0.24 kW=2.09025 pf=0.9 status=variable model=4 CVRwatts=0.8 CVRvars=3 class=1 yearly=25607_B conn=wye xfkVA=6.25 allocationfactor=0.3716
New "Load.1000606-db2" phases=1 bus1=s2x_1000606.2 kV=0.24 kW=2.09025 pf=0.9 status=variable model=4 CVRwatts=0.8 CVRvars=3 class=1 yearly=25607_B conn=wye xfkVA=6.25 allocationfactor=0.3716
New "Load.1000606-db3" phases=1 bus1=s3x_1000606.2 kV=0.24 kW=2.09025 pf=0.9 status=variable model=4 CVRwatts=0.8 CVRvars=3 class=1 yearly=25607_B conn=wye xfkVA=6.25 allocationfactor=0.3716
New "Load.1000606-db4" phases=1 bus1=s4x_1000606.2 kV=0.24 kW=2.09025 pf=0.9 status=variable model=4 CVRwatts=0.8 CVRvars=3 class=1 yearly=25607_B conn=wye xfkVA=6.25 allocationfactor=0.3716
New "Load.1000606-db5" phases=1 bus1=s5x_1000606.2 kV=0.24 kW=2.09025 pf=0.9 status=variable model=4 CVRwatts=0.8 CVRvars=3 class=1 yearly=25607_B conn=wye xfkVA=6.25 allocationfactor=0.3716
New "Load.1000606-db6" phases=1 bus1=s6x_1000606.2 kV=0.24 kW=2.09025 pf=0.9 status=variable model=4 CVRwatts=0.8 CVRvars=3 class=1 yearly=25607_B conn=wye xfkVA=6.25 allocationfactor=0.3716
New "Load.1000606-db7" phases=1 bus1=s7x_1000606.2 kV=0.24 kW=2.09025 pf=0.9 status=variable model=4 CVRwatts=0.8 CVRvars=3 class=1 yearly=25607_B conn=wye xfkVA=6.25 allocationfactor=0.3716
New "Load.1000606-db8" phases=1 bus1=s8x_1000606.2 kV=0.24 kW=2.09025 pf=0.9 status=variable model=4 CVRwatts=0.8 CVRvars=3 class=1 yearly=25607_B conn=wye xfkVA=6.25 allocationfactor=0.3716
New "Load.1000606-db9" phases=1 bus1=s9x_1000606.2 kV=0.24 kW=2.09025 pf=0.9 status=variable model=4 CVRwatts=0.8 CVRvars=3 class=1 yearly=25607_B conn=wye xfkVA=6.25 allocationfactor=0.3716
New "Load.1000606-db10" phases=1 bus1=s10x_1000606.2 kV=0.24 kW=2.09025 pf=0.9 status=variable model=4 CVRwatts=0.8 CVRvars=3 class=1 yearly=25607_B conn=wye xfkVA=6.25 allocationfactor=0.3716
New "Load.1000606-db11" phases=1 bus1=s11x_1000606.2 kV=0.24 kW=2.09025 pf=0.9 status=variable model=4 CVRwatts=0.8 CVRvars=3 class=1 yearly=25607_B conn=wye xfkVA=6.25 allocationfactor=0.3716
New "Load.1000606-db12" phases=1 bus1=s12x_1000606.2 kV=0.24 kW=2.09025 pf=0.9 status=variable model=4 CVRwatts=0.8 CVRvars=3 class=1 yearly=25607_B conn=wye xfkVA=6.25 allocationfactor=0.3716
New "Load.1000746-d1" phases=3 bus1=s1x_1000746 kV=0.208 kW=33.264 pf=0.9 status=variable model=4 CVRwatts=0.8 CVRvars=3 class=1 yearly=25607 conn=wye xfkVA=100 allocationfactor=0.3696
New "Load.1000746-d2" phases=3 bus1=s2x_1000746 kV=0.208 kW=33.264 pf=0.9 status=variable model=4 CVRwatts=0.8 CVRvars=3 class=1 yearly=25607 conn=wye xfkVA=100 allocationfactor=0.3696
New "Load.1000746-d3" phases=3 bus1=s3x_1000746 kV=0.208 kW=33.264 pf=0.9 status=variable model=4 CVRwatts=0.8 CVRvars=3 class=1 yearly=25607 conn=wye xfkVA=100 allocationfactor=0.3696
New "Load.1000548-da1" phases=1 bus1=s1x_1000548.1 kV=0.24 kW=15.993 pf=0.9 status=variable model=4 CVRwatts=0.8 CVRvars=3 class=1 yearly=25607_A conn=wye xfkVA=50 allocationfactor=0.3554
New "Load.1000069-d1" phases=3 bus1=s1x_1000069 kV=0.208 kW=16.632 pf=0.9 status=variable model=4 CVRwatts=0.8 CVRvars=3 class=1 yearly=25607 conn=wye xfkVA=50 allocationfactor=0.3696
New "Load.1000069-d2" phases=3 bus1=s2x_1000069 kV=0.208 kW=16.632 pf=0.9 status=variable model=4 CVRwatts=0.8 CVRvars=3 class=1 yearly=25607 conn=wye xfkVA=50 allocationfactor=0.3696
New "Load.1000069-d3" phases=3 bus1=s3x_1000069 kV=0.208 kW=16.632 pf=0.9 status=variable model=4 CVRwatts=0.8 CVRvars=3 class=1 yearly=25607 conn=wye xfkVA=50 allocationfactor=0.3696
New "Load.1000069-d4" phases=3 bus1=s4x_1000069 kV=0.208 kW=16.632 pf=0.9 status=variable model=4 CVRwatts=0.8 CVRvars=3 class=1 yearly=25607 conn=wye xfkVA=50 allocationfactor=0.3696
New "Load.1000069-d5" phases=3 bus1=s5x_1000069 kV=0.208 kW=16.632 pf=0.9 status=variable model=4 CVRwatts=0.8 CVRvars=3 class=1 yearly=25607 conn=wye xfkVA=50 allocationfactor=0.3696
New "Load.1000069-d6" phases=3 bus1=s6x_1000069 kV=0.208 kW=16.632 pf=0.9 status=variable model=4 CVRwatts=0.8 CVRvars=3 class=1 yearly=25607 conn=wye xfkVA=50 allocationfactor=0.3696
New "Load.1002055-da1" phases=1 bus1=s1x_1002055.1 kV=0.24 kW=7.9965 pf=0.9 status=variable model=4 CVRwatts=0.8 CVRvars=3 class=1 yearly=25607_A conn=wye xfkVA=25 allocationfactor=0.3554
New "Load.1002055-db1" phases=1 bus1=s1x_1002055.2 kV=0.24 kW=8.361 pf=0.9 status=variable model=4 CVRwatts=0.8 CVRvars=3 class=1 yearly=25607_B conn=wye xfkVA=25 allocationfactor=0.3716
New "Load.1002055-dc1" phases=1 bus1=s1x_1002055.3 kV=0.24 kW=8.59275 pf=0.9 status=variable model=4 CVRwatts=0.8 CVRvars=3 class=1 yearly=25607_C conn=wye xfkVA=25 allocationfactor=0.3819
New "Load.1001637-d1" phases=3 bus1=s1x_1001637 kV=0.208 kW=8.316 pf=0.9 status=variable model=4 CVRwatts=0.8 CVRvars=3 class=1 yearly=25607 conn=wye xfkVA=25 allocationfactor=0.3696
New "Load.1001637-d2" phases=3 bus1=s2x_1001637 kV=0.208 kW=8.316 pf=0.9 status=variable model=4 CVRwatts=0.8 CVRvars=3 class=1 yearly=25607 conn=wye xfkVA=25 allocationfactor=0.3696
New "Load.1001637-d3" phases=3 bus1=s3x_1001637 kV=0.208 kW=8.316 pf=0.9 status=variable model=4 CVRwatts=0.8 CVRvars=3 class=1 yearly=25607 conn=wye xfkVA=25 allocationfactor=0.3696
New "Load.1001637-d4" phases=3 bus1=s4x_1001637 kV=0.208 kW=8.316 pf=0.9 status=variable model=4 CVRwatts=0.8 CVRvars=3 class=1 yearly=25607 conn=wye xfkVA=25 allocationfactor=0.3696
New "Load.1001637-d5" phases=3 bus1=s5x_1001637 kV=0.208 kW=8.316 pf=0.9 status=variable model=4 CVRwatts=0.8 CVRvars=3 class=1 yearly=25607 conn=wye xfkVA=25 allocationfactor=0.3696
New "Load.1001637-d6" phases=3 bus1=s6x_1001637 kV=0.208 kW=8.316 pf=0.9 status=variable model=4 CVRwatts=0.8 CVRvars=3 class=1 yearly=25607 conn=wye xfkVA=25 allocationfactor=0.3696
New "Load.1000538-da1" phases=1 bus1=s1x_1000538.1 kV=0.24 kW=4.7979 pf=0.9 status=variable model=4 CVRwatts=0.8 CVRvars=3 class=1 yearly=25607_A conn=wye xfkVA=15 allocationfactor=0.3554
New "Load.1000538-db1" phases=1 bus1=s1x_1000538.2 kV=0.24 kW=5.0166 pf=0.9 status=variable model=4 CVRwatts=0.8 CVRvars=3 class=1 yearly=25607_B conn=wye xfkVA=15 allocationfactor=0.3716
New "Load.1000538-dc1" phases=1 bus1=s1x_1000538.3 kV=0.24 kW=5.15565 pf=0.9 status=variable model=4 CVRwatts=0.8 CVRvars=3 class=1 yearly=25607_C conn=wye xfkVA=15 allocationfactor=0.3819
New "Load.1000087-da1" phases=1 bus1=s1x_1000087.1 kV=0.24 kW=4.7979 pf=0.9 status=variable model=4 CVRwatts=0.8 CVRvars=3 class=1 yearly=25607_A conn=wye xfkVA=15 allocationfactor=0.3554
New "Load.1000087-db1" phases=1 bus1=s1x_1000087.2 kV=0.24 kW=5.0166 pf=0.9 status=variable model=4 CVRwatts=0.8 CVRvars=3 class=1 yearly=25607_B conn=wye xfkVA=15 allocationfactor=0.3716
New "Load.1000087-dc1" phases=1 bus1=s1x_1000087.3 kV=0.24 kW=5.15565 pf=0.9 status=variable model=4 CVRwatts=0.8 CVRvars=3 class=1 yearly=25607_C conn=wye xfkVA=15 allocationfactor=0.3819
...